Circuit: * D:\AUPSCRepo\LTSpice\auspc_v3_ltc6228.asc

WARNING: Less than two connections to node NC_01.  This node is used by R6.
Direct Newton iteration failed to find .op point.  (Use ".option noopiter" to skip.)
Starting Gmin stepping
Gmin = 10
Gmin = 1.07374
Gmin = 0.115292
Gmin = 0.0123794
Gmin = 0.00132923
Gmin = 0.000142725
Gmin = 1.5325e-005
Gmin = 1.6455e-006
vernier = 0.5
vernier = 0.666667
Gmin = 5.36702e-007
vernier = 0.888888
Gmin = 8.6905e-008
vernier = 1
Gmin = 9.33136e-009
Gmin = 1.00195e-009
Gmin = 1.07583e-010
Gmin = 1.15517e-011
Gmin = 1.24035e-012
Gmin = 1.33182e-013
Gmin = 0
Gmin stepping succeeded in finding the operating point.


out1_max: MAX(mag(v(out1)))=(-57.0712dB,0°) FROM 100 TO 1e+007
f_3db: mag(v(out1)=out1_max/sqrt(2)) AT 651418


Date: Sun Dec 06 12:02:33 2020
Total elapsed time: 0.065 seconds.

tnom = 27
temp = 27
method = trap
totiter = 708
traniter = 0
tranpoints = 0
accept = 0
rejected = 0
matrix size = 50
fillins = 81
solver = Normal
Matrix Compiler1:     320 opcodes
Matrix Compiler2: 5.88 KB object code size  0.3/0.6/[0.4]

