Circuit: * C:\Users\Piotrek\Desktop\auspc\auspc.asc

Direct Newton iteration failed to find .op point.  (Use ".option noopiter" to skip.)
Starting Gmin stepping
Gmin = 10
Gmin = 1.07374
Gmin = 0.115292
Gmin = 0.0123794
Gmin = 0.00132923
Gmin = 0.000142725
Gmin = 1.5325e-005
Gmin = 1.6455e-006
Gmin = 1.76685e-007
Gmin = 1.89714e-008
Gmin = 2.03704e-009
vernier = 0.5
vernier = 0.25
vernier = 0.125
Gmin = 1.22589e-009
vernier = 0.0625
vernier = 0.0833333
Gmin = 1.07728e-009
vernier = 0.111111
vernier = 0.148148
Gmin = 8.15521e-010
vernier = 0.197531
Gmin = 5.28025e-010
vernier = 0.263374
vernier = 0.351165
Gmin = 2.57224e-010
vernier = 0.46822
vernier = 0.624294
Gmin = 8.37147e-011
vernier = 0.832392
Gmin = 1.50747e-011
vernier = 1
Gmin = 1.61863e-012
Gmin = 1.73799e-013
Gmin = 0
Gmin stepping succeeded in finding the operating point.


Date: Mon Nov 16 17:06:44 2020
Total elapsed time: 0.081 seconds.

tnom = 27
temp = 27
method = trap
totiter = 1161
traniter = 0
tranpoints = 0
accept = 0
rejected = 0
matrix size = 128
fillins = 154
solver = Normal
Matrix Compiler1:     706 opcodes
Matrix Compiler2: 12.18 KB object code size  0.9/1.4/[0.7]

