Circuit: * D:\AUPSCRepo\LTSpice\auspc_v2.asc

Direct Newton iteration failed to find .op point.  (Use ".option noopiter" to skip.)
Starting Gmin stepping
Gmin = 10
Gmin = 1.07374
vernier = 0.5
vernier = 0.25
vernier = 0.125
vernier = 0.0625
Gmin = 1.08884
vernier = 0.03125
vernier = 0.015625
Gmin = 1.05544
vernier = 0.0078125
vernier = 0.0104167
vernier = 0.00520833
Gmin = 1.04383
vernier = 0.00694444
vernier = 0.00347222
Gmin = 1.03481
vernier = 0.00462963
vernier = 0.00231481
vernier = 0.00308642
vernier = 0.00154321
Gmin = 1.03093
vernier = 0.00205761
Gmin = 1.0263
vernier = 0.00102881
vernier = 0.00137174
Gmin = 1.0241
vernier = 0.00182899
vernier = 0.000914493
vernier = 0.00121932
Gmin = 1.02192
vernier = 0.000609662
vernier = 0.000812882
Gmin = 1.02062
vernier = 0.00108384
vernier = 0.000541921
vernier = 0.000722562
Gmin = 1.01934
vernier = 0.000541921
vernier = 0.000722562
Gmin = 1.01809
vernier = 0.000541921
vernier = 0.000722561
vernier = 0.000541921
Gmin = 1.01731
vernier = 0.000406441
vernier = 0.000541921
vernier = 0.000406441
Gmin = 1.01666
vernier = 0.000541921
vernier = 0.000406441
Gmin = 1.01583
vernier = 0.000541921
vernier = 0.00040644
Gmin = 0
Gmin stepping failed

Starting source stepping with srcstepmethod=0
Source Step = 3.0303%
Source Step = 33.3333%
Source Step = 56.0606%
Source Step = 63.6364%
Source Step = 71.2121%
Source Step = 78.7879%
Source Step = 86.3636%
vernier = 0.375
Source Step = 94.3182%
Source stepping succeeded in finding the operating point.




Date: Mon Nov 30 16:48:22 2020
Total elapsed time: 2.316 seconds.

tnom = 27
temp = 27
method = trap
totiter = 11283
traniter = 0
tranpoints = 0
accept = 0
rejected = 0
matrix size = 254
fillins = 513
solver = Normal
Matrix Compiler1:    1617 opcodes
Matrix Compiler2: 28.21 KB object code size  2.2/3.5/[1.3]

